<?xml version="1.0" encoding="iso-8859-1"?>
<configuration xmlns:xsi="http://www.w3.org/2001/XMLSchema-instance"
 xsi:noNamespaceSchemaLocation="http://sumo.sf.net/xsd/sumoConfiguration.xsd">
    <input>
        <net-file value="/home/liu/Documents/adapt-BP/somoFile/adaptBPnetwork.net.xml"/>
        <route-files value="/home/liu/Documents/adapt-BP/somoFile/BProute.rou.xml"/>
    </input>
    <time>
        <begin value="0"/>
        <end value="5400"/>
    </time>
    <time-to-teleport value="-1"/>
</configuration>
