<?xml version="1.0" encoding="UTF-8"?>

<!-- generated on 2017年06月08日 12時46分02秒 by Netedit Version 0.28.0
<?xml version="1.0" encoding="UTF-8"?>

<configuration xmlns:xsi="http://www.w3.org/2001/XMLSchema-instance" xsi:noNamespaceSchemaLocation="http://sumo.dlr.de/xsd/netedit.exeConfiguration.xsd">

    <input>

    <output>
        <output-file value="/home/liu/Documents/sumo_file/BPnetwork.net.xml"/>
    </output>

    <processing>
        <no-turnarounds value="true"/>
        <offset.disable-normalization value="true"/>
        <lefthand value="false"/>
        <junctions.corner-detail value="0"/>
    </processing>

    <visualisation>
        <registry-viewport value="true"/>
    </visualisation>

</configuration>
-->

<net version="0.27" xmlns:xsi="http://www.w3.org/2001/XMLSchema-instance" xsi:noNamespaceSchemaLocation="http://sumo.dlr.de/xsd/net_file.xsd">

    <location netOffset="0.00,0.00" convBoundary="0.00,0.00,3500.00,3500.00" origBoundary="0.00,0.00,3500.00,3500.00" projParameter="!"/>

    <edge id=":N_00_0" function="internal">
        <lane id=":N_00_0_0" index="0" speed="13.89" length="23.87" shape="-8.25,9.85 -7.12,1.93 -3.73,-3.73 1.93,-7.12 9.85,-8.25"/>
        <lane id=":N_00_0_1" index="1" speed="13.89" length="23.87" shape="-4.95,9.85 -4.03,3.37 -1.25,-1.25 3.37,-4.03 9.85,-4.95"/>
        <lane id=":N_00_0_2" index="2" speed="13.89" length="23.87" shape="-1.65,9.85 -0.93,4.82 1.22,1.22 4.82,-0.93 9.85,-1.65"/>
    </edge>
    <edge id=":N_00_3" function="internal">
        <lane id=":N_00_3_0" index="0" speed="13.89" length="7.90" shape="9.85,8.25 9.15,8.35 8.65,8.65 8.35,9.15 8.25,9.85"/>
        <lane id=":N_00_3_1" index="1" speed="13.89" length="7.90" shape="9.85,4.95 7.71,5.26 6.17,6.17 5.26,7.71 4.95,9.85"/>
        <lane id=":N_00_3_2" index="2" speed="13.89" length="7.90" shape="9.85,1.65 6.26,2.16 3.70,3.70 2.16,6.26 1.65,9.85"/>
    </edge>
    <edge id=":N_01_0" function="internal">
        <lane id=":N_01_0_0" index="0" speed="13.89" length="22.70" shape="-8.25,511.35 -8.25,488.65"/>
        <lane id=":N_01_0_1" index="1" speed="13.89" length="22.70" shape="-4.95,511.35 -4.95,488.65"/>
        <lane id=":N_01_0_2" index="2" speed="13.89" length="22.70" shape="-1.65,511.35 -1.65,488.65"/>
    </edge>
    <edge id=":N_01_3" function="internal">
        <lane id=":N_01_3_0" index="0" speed="13.89" length="8.35" shape="-1.65,511.35 -0.84,504.22 0.05,502.36"/>
        <lane id=":N_01_3_1" index="1" speed="13.89" length="8.35" shape="-1.65,511.35 -0.84,505.66 0.05,504.18"/>
    </edge>
    <edge id=":N_01_12" function="internal">
        <lane id=":N_01_12_0" index="0" speed="13.89" length="14.45" shape="0.05,502.36 1.60,499.12 5.66,496.07 11.35,495.05"/>
    </edge>
    <edge id=":N_01_13" function="internal">
        <lane id=":N_01_13_0" index="0" speed="13.89" length="13.50" shape="0.05,504.18 1.60,501.60 5.66,499.16 11.35,498.35"/>
    </edge>
    <edge id=":N_01_5" function="internal">
        <lane id=":N_01_5_0" index="0" speed="13.89" length="5.00" shape="11.35,508.25 9.99,508.44 9.03,509.02 8.44,509.99 8.25,511.35"/>
    </edge>
    <edge id=":N_01_6" function="internal">
        <lane id=":N_01_6_0" index="0" speed="13.89" length="23.63" shape="11.35,504.95 4.22,503.93 -0.88,500.88 -3.93,495.78 -4.95,488.65"/>
        <lane id=":N_01_6_1" index="1" speed="13.89" length="23.63" shape="11.35,501.65 5.66,500.84 1.60,498.40 -0.84,494.34 -1.65,488.65"/>
    </edge>
    <edge id=":N_01_8" function="internal">
        <lane id=":N_01_8_0" index="0" speed="13.89" length="5.00" shape="8.25,488.65 8.44,490.01 9.02,490.98 9.99,491.56 11.35,491.75"/>
    </edge>
    <edge id=":N_01_9" function="internal">
        <lane id=":N_01_9_0" index="0" speed="13.89" length="22.70" shape="8.25,488.65 8.25,511.35"/>
        <lane id=":N_01_9_1" index="1" speed="13.89" length="22.70" shape="4.95,488.65 4.95,511.35"/>
        <lane id=":N_01_9_2" index="2" speed="13.89" length="22.70" shape="1.65,488.65 1.65,511.35"/>
    </edge>
    <edge id=":N_02_0" function="internal">
        <lane id=":N_02_0_0" index="0" speed="13.89" length="22.70" shape="-8.25,1011.35 -8.25,988.65"/>
        <lane id=":N_02_0_1" index="1" speed="13.89" length="22.70" shape="-4.95,1011.35 -4.95,988.65"/>
        <lane id=":N_02_0_2" index="2" speed="13.89" length="22.70" shape="-1.65,1011.35 -1.65,988.65"/>
    </edge>
    <edge id=":N_02_3" function="internal">
        <lane id=":N_02_3_0" index="0" speed="13.89" length="8.35" shape="-1.65,1011.35 -0.84,1004.22 0.05,1002.36"/>
        <lane id=":N_02_3_1" index="1" speed="13.89" length="8.35" shape="-1.65,1011.35 -0.84,1005.66 0.05,1004.18"/>
    </edge>
    <edge id=":N_02_12" function="internal">
        <lane id=":N_02_12_0" index="0" speed="13.89" length="14.45" shape="0.05,1002.36 1.60,999.12 5.66,996.07 11.35,995.05"/>
    </edge>
    <edge id=":N_02_13" function="internal">
        <lane id=":N_02_13_0" index="0" speed="13.89" length="13.50" shape="0.05,1004.18 1.60,1001.60 5.66,999.16 11.35,998.35"/>
    </edge>
    <edge id=":N_02_5" function="internal">
        <lane id=":N_02_5_0" index="0" speed="13.89" length="5.00" shape="11.35,1008.25 9.99,1008.44 9.03,1009.02 8.44,1009.99 8.25,1011.35"/>
    </edge>
    <edge id=":N_02_6" function="internal">
        <lane id=":N_02_6_0" index="0" speed="13.89" length="23.63" shape="11.35,1004.95 4.22,1003.93 -0.88,1000.88 -3.93,995.78 -4.95,988.65"/>
        <lane id=":N_02_6_1" index="1" speed="13.89" length="23.63" shape="11.35,1001.65 5.66,1000.84 1.60,998.40 -0.84,994.34 -1.65,988.65"/>
    </edge>
    <edge id=":N_02_8" function="internal">
        <lane id=":N_02_8_0" index="0" speed="13.89" length="5.00" shape="8.25,988.65 8.44,990.01 9.02,990.98 9.99,991.56 11.35,991.75"/>
    </edge>
    <edge id=":N_02_9" function="internal">
        <lane id=":N_02_9_0" index="0" speed="13.89" length="22.70" shape="8.25,988.65 8.25,1011.35"/>
        <lane id=":N_02_9_1" index="1" speed="13.89" length="22.70" shape="4.95,988.65 4.95,1011.35"/>
        <lane id=":N_02_9_2" index="2" speed="13.89" length="22.70" shape="1.65,988.65 1.65,1011.35"/>
    </edge>
    <edge id=":N_03_0" function="internal">
        <lane id=":N_03_0_0" index="0" speed="13.89" length="22.70" shape="-8.25,1511.35 -8.25,1488.65"/>
        <lane id=":N_03_0_1" index="1" speed="13.89" length="22.70" shape="-4.95,1511.35 -4.95,1488.65"/>
        <lane id=":N_03_0_2" index="2" speed="13.89" length="22.70" shape="-1.65,1511.35 -1.65,1488.65"/>
    </edge>
    <edge id=":N_03_3" function="internal">
        <lane id=":N_03_3_0" index="0" speed="13.89" length="8.35" shape="-1.65,1511.35 -0.84,1504.22 0.05,1502.36"/>
        <lane id=":N_03_3_1" index="1" speed="13.89" length="8.35" shape="-1.65,1511.35 -0.84,1505.66 0.05,1504.18"/>
    </edge>
    <edge id=":N_03_12" function="internal">
        <lane id=":N_03_12_0" index="0" speed="13.89" length="14.45" shape="0.05,1502.36 1.60,1499.12 5.66,1496.07 11.35,1495.05"/>
    </edge>
    <edge id=":N_03_13" function="internal">
        <lane id=":N_03_13_0" index="0" speed="13.89" length="13.50" shape="0.05,1504.18 1.60,1501.60 5.66,1499.16 11.35,1498.35"/>
    </edge>
    <edge id=":N_03_5" function="internal">
        <lane id=":N_03_5_0" index="0" speed="13.89" length="5.00" shape="11.35,1508.25 9.99,1508.44 9.02,1509.03 8.44,1509.99 8.25,1511.35"/>
    </edge>
    <edge id=":N_03_6" function="internal">
        <lane id=":N_03_6_0" index="0" speed="13.89" length="23.63" shape="11.35,1504.95 4.22,1503.93 -0.88,1500.88 -3.93,1495.78 -4.95,1488.65"/>
        <lane id=":N_03_6_1" index="1" speed="13.89" length="23.63" shape="11.35,1501.65 5.66,1500.84 1.60,1498.40 -0.84,1494.34 -1.65,1488.65"/>
    </edge>
    <edge id=":N_03_8" function="internal">
        <lane id=":N_03_8_0" index="0" speed="13.89" length="5.00" shape="8.25,1488.65 8.44,1490.01 9.02,1490.97 9.99,1491.56 11.35,1491.75"/>
    </edge>
    <edge id=":N_03_9" function="internal">
        <lane id=":N_03_9_0" index="0" speed="13.89" length="22.70" shape="8.25,1488.65 8.25,1511.35"/>
        <lane id=":N_03_9_1" index="1" speed="13.89" length="22.70" shape="4.95,1488.65 4.95,1511.35"/>
        <lane id=":N_03_9_2" index="2" speed="13.89" length="22.70" shape="1.65,1488.65 1.65,1511.35"/>
    </edge>
    <edge id=":N_04_0" function="internal">
        <lane id=":N_04_0_0" index="0" speed="13.89" length="22.70" shape="-8.25,2011.35 -8.25,1988.65"/>
        <lane id=":N_04_0_1" index="1" speed="13.89" length="22.70" shape="-4.95,2011.35 -4.95,1988.65"/>
        <lane id=":N_04_0_2" index="2" speed="13.89" length="22.70" shape="-1.65,2011.35 -1.65,1988.65"/>
    </edge>
    <edge id=":N_04_3" function="internal">
        <lane id=":N_04_3_0" index="0" speed="13.89" length="8.35" shape="-1.65,2011.35 -0.84,2004.22 0.05,2002.36"/>
        <lane id=":N_04_3_1" index="1" speed="13.89" length="8.35" shape="-1.65,2011.35 -0.84,2005.66 0.05,2004.18"/>
    </edge>
    <edge id=":N_04_12" function="internal">
        <lane id=":N_04_12_0" index="0" speed="13.89" length="14.45" shape="0.05,2002.36 1.60,1999.12 5.66,1996.07 11.35,1995.05"/>
    </edge>
    <edge id=":N_04_13" function="internal">
        <lane id=":N_04_13_0" index="0" speed="13.89" length="13.50" shape="0.05,2004.18 1.60,2001.60 5.66,1999.16 11.35,1998.35"/>
    </edge>
    <edge id=":N_04_5" function="internal">
        <lane id=":N_04_5_0" index="0" speed="13.89" length="5.00" shape="11.35,2008.25 9.99,2008.44 9.02,2009.03 8.44,2009.99 8.25,2011.35"/>
    </edge>
    <edge id=":N_04_6" function="internal">
        <lane id=":N_04_6_0" index="0" speed="13.89" length="23.63" shape="11.35,2004.95 4.22,2003.93 -0.88,2000.88 -3.93,1995.78 -4.95,1988.65"/>
        <lane id=":N_04_6_1" index="1" speed="13.89" length="23.63" shape="11.35,2001.65 5.66,2000.84 1.60,1998.40 -0.84,1994.34 -1.65,1988.65"/>
    </edge>
    <edge id=":N_04_8" function="internal">
        <lane id=":N_04_8_0" index="0" speed="13.89" length="5.00" shape="8.25,1988.65 8.44,1990.01 9.02,1990.97 9.99,1991.56 11.35,1991.75"/>
    </edge>
    <edge id=":N_04_9" function="internal">
        <lane id=":N_04_9_0" index="0" speed="13.89" length="22.70" shape="8.25,1988.65 8.25,2011.35"/>
        <lane id=":N_04_9_1" index="1" speed="13.89" length="22.70" shape="4.95,1988.65 4.95,2011.35"/>
        <lane id=":N_04_9_2" index="2" speed="13.89" length="22.70" shape="1.65,1988.65 1.65,2011.35"/>
    </edge>
    <edge id=":N_05_0" function="internal">
        <lane id=":N_05_0_0" index="0" speed="13.89" length="22.70" shape="-8.25,2511.35 -8.25,2488.65"/>
        <lane id=":N_05_0_1" index="1" speed="13.89" length="22.70" shape="-4.95,2511.35 -4.95,2488.65"/>
        <lane id=":N_05_0_2" index="2" speed="13.89" length="22.70" shape="-1.65,2511.35 -1.65,2488.65"/>
    </edge>
    <edge id=":N_05_3" function="internal">
        <lane id=":N_05_3_0" index="0" speed="13.89" length="8.35" shape="-1.65,2511.35 -0.84,2504.22 0.05,2502.36"/>
        <lane id=":N_05_3_1" index="1" speed="13.89" length="8.35" shape="-1.65,2511.35 -0.84,2505.66 0.05,2504.18"/>
    </edge>
    <edge id=":N_05_12" function="internal">
        <lane id=":N_05_12_0" index="0" speed="13.89" length="14.45" shape="0.05,2502.36 1.60,2499.12 5.66,2496.07 11.35,2495.05"/>
    </edge>
    <edge id=":N_05_13" function="internal">
        <lane id=":N_05_13_0" index="0" speed="13.89" length="13.50" shape="0.05,2504.18 1.60,2501.60 5.66,2499.16 11.35,2498.35"/>
    </edge>
    <edge id=":N_05_5" function="internal">
        <lane id=":N_05_5_0" index="0" speed="13.89" length="5.00" shape="11.35,2508.25 9.99,2508.44 9.02,2509.03 8.44,2509.99 8.25,2511.35"/>
    </edge>
    <edge id=":N_05_6" function="internal">
        <lane id=":N_05_6_0" index="0" speed="13.89" length="23.63" shape="11.35,2504.95 4.22,2503.93 -0.88,2500.88 -3.93,2495.78 -4.95,2488.65"/>
        <lane id=":N_05_6_1" index="1" speed="13.89" length="23.63" shape="11.35,2501.65 5.66,2500.84 1.60,2498.40 -0.84,2494.34 -1.65,2488.65"/>
    </edge>
    <edge id=":N_05_8" function="internal">
        <lane id=":N_05_8_0" index="0" speed="13.89" length="5.00" shape="8.25,2488.65 8.44,2490.01 9.02,2490.97 9.99,2491.56 11.35,2491.75"/>
    </edge>
    <edge id=":N_05_9" function="internal">
        <lane id=":N_05_9_0" index="0" speed="13.89" length="22.70" shape="8.25,2488.65 8.25,2511.35"/>
        <lane id=":N_05_9_1" index="1" speed="13.89" length="22.70" shape="4.95,2488.65 4.95,2511.35"/>
        <lane id=":N_05_9_2" index="2" speed="13.89" length="22.70" shape="1.65,2488.65 1.65,2511.35"/>
    </edge>
    <edge id=":N_06_0" function="internal">
        <lane id=":N_06_0_0" index="0" speed="13.89" length="22.70" shape="-8.25,3011.35 -8.25,2988.65"/>
        <lane id=":N_06_0_1" index="1" speed="13.89" length="22.70" shape="-4.95,3011.35 -4.95,2988.65"/>
        <lane id=":N_06_0_2" index="2" speed="13.89" length="22.70" shape="-1.65,3011.35 -1.65,2988.65"/>
    </edge>
    <edge id=":N_06_3" function="internal">
        <lane id=":N_06_3_0" index="0" speed="13.89" length="8.35" shape="-1.65,3011.35 -0.84,3004.22 0.05,3002.36"/>
        <lane id=":N_06_3_1" index="1" speed="13.89" length="8.35" shape="-1.65,3011.35 -0.84,3005.66 0.05,3004.18"/>
    </edge>
    <edge id=":N_06_12" function="internal">
        <lane id=":N_06_12_0" index="0" speed="13.89" length="14.45" shape="0.05,3002.36 1.60,2999.12 5.66,2996.07 11.35,2995.05"/>
    </edge>
    <edge id=":N_06_13" function="internal">
        <lane id=":N_06_13_0" index="0" speed="13.89" length="13.50" shape="0.05,3004.18 1.60,3001.60 5.66,2999.16 11.35,2998.35"/>
    </edge>
    <edge id=":N_06_5" function="internal">
        <lane id=":N_06_5_0" index="0" speed="13.89" length="5.00" shape="11.35,3008.25 9.99,3008.44 9.02,3009.03 8.44,3009.99 8.25,3011.35"/>
    </edge>
    <edge id=":N_06_6" function="internal">
        <lane id=":N_06_6_0" index="0" speed="13.89" length="23.63" shape="11.35,3004.95 4.22,3003.93 -0.88,3000.87 -3.93,2995.78 -4.95,2988.65"/>
        <lane id=":N_06_6_1" index="1" speed="13.89" length="23.63" shape="11.35,3001.65 5.66,3000.84 1.60,2998.40 -0.84,2994.34 -1.65,2988.65"/>
    </edge>
    <edge id=":N_06_8" function="internal">
        <lane id=":N_06_8_0" index="0" speed="13.89" length="5.00" shape="8.25,2988.65 8.44,2990.01 9.02,2990.97 9.99,2991.56 11.35,2991.75"/>
    </edge>
    <edge id=":N_06_9" function="internal">
        <lane id=":N_06_9_0" index="0" speed="13.89" length="22.70" shape="8.25,2988.65 8.25,3011.35"/>
        <lane id=":N_06_9_1" index="1" speed="13.89" length="22.70" shape="4.95,2988.65 4.95,3011.35"/>
        <lane id=":N_06_9_2" index="2" speed="13.89" length="22.70" shape="1.65,2988.65 1.65,3011.35"/>
    </edge>
    <edge id=":N_07_0" function="internal">
        <lane id=":N_07_0_0" index="0" speed="13.89" length="23.87" shape="9.85,3508.25 1.93,3507.12 -3.73,3503.72 -7.12,3498.07 -8.25,3490.15"/>
        <lane id=":N_07_0_1" index="1" speed="13.89" length="23.87" shape="9.85,3504.95 3.38,3504.03 -1.25,3501.25 -4.02,3496.62 -4.95,3490.15"/>
        <lane id=":N_07_0_2" index="2" speed="13.89" length="23.87" shape="9.85,3501.65 4.82,3500.93 1.22,3498.78 -0.93,3495.18 -1.65,3490.15"/>
    </edge>
    <edge id=":N_07_3" function="internal">
        <lane id=":N_07_3_0" index="0" speed="13.89" length="7.90" shape="8.25,3490.15 8.35,3490.85 8.65,3491.35 9.15,3491.65 9.85,3491.75"/>
        <lane id=":N_07_3_1" index="1" speed="13.89" length="7.90" shape="4.95,3490.15 5.26,3492.29 6.17,3493.82 7.71,3494.74 9.85,3495.05"/>
        <lane id=":N_07_3_2" index="2" speed="13.89" length="7.90" shape="1.65,3490.15 2.16,3493.74 3.70,3496.30 6.26,3497.84 9.85,3498.35"/>
    </edge>
    <edge id=":N_10_0" function="internal">
        <lane id=":N_10_0_0" index="0" speed="13.89" length="5.00" shape="491.75,11.35 491.56,9.99 490.98,9.02 490.01,8.44 488.65,8.25"/>
    </edge>
    <edge id=":N_10_1" function="internal">
        <lane id=":N_10_1_0" index="0" speed="13.89" length="23.63" shape="495.05,11.35 496.07,4.22 499.12,-0.88 504.22,-3.93 511.35,-4.95"/>
        <lane id=":N_10_1_1" index="1" speed="13.89" length="23.63" shape="498.35,11.35 499.16,5.66 501.60,1.60 505.66,-0.84 511.35,-1.65"/>
    </edge>
    <edge id=":N_10_3" function="internal">
        <lane id=":N_10_3_0" index="0" speed="13.89" length="5.00" shape="511.35,8.25 509.99,8.44 509.02,9.02 508.44,9.99 508.25,11.35"/>
    </edge>
    <edge id=":N_10_4" function="internal">
        <lane id=":N_10_4_0" index="0" speed="13.89" length="22.70" shape="511.35,8.25 488.65,8.25"/>
        <lane id=":N_10_4_1" index="1" speed="13.89" length="22.70" shape="511.35,4.95 488.65,4.95"/>
        <lane id=":N_10_4_2" index="2" speed="13.89" length="22.70" shape="511.35,1.65 488.65,1.65"/>
    </edge>
    <edge id=":N_10_7" function="internal">
        <lane id=":N_10_7_0" index="0" speed="13.89" length="22.70" shape="488.65,-8.25 511.35,-8.25"/>
        <lane id=":N_10_7_1" index="1" speed="13.89" length="22.70" shape="488.65,-4.95 511.35,-4.95"/>
        <lane id=":N_10_7_2" index="2" speed="13.89" length="22.70" shape="488.65,-1.65 511.35,-1.65"/>
    </edge>
    <edge id=":N_10_10" function="internal">
        <lane id=":N_10_10_0" index="0" speed="13.89" length="8.35" shape="488.65,-1.65 495.78,-0.84 497.64,0.05"/>
        <lane id=":N_10_10_1" index="1" speed="13.89" length="8.35" shape="488.65,-1.65 494.34,-0.84 495.82,0.05"/>
    </edge>
    <edge id=":N_10_12" function="internal">
        <lane id=":N_10_12_0" index="0" speed="13.89" length="14.45" shape="497.64,0.05 500.88,1.60 503.93,5.66 504.95,11.35"/>
    </edge>
    <edge id=":N_10_13" function="internal">
        <lane id=":N_10_13_0" index="0" speed="13.89" length="13.50" shape="495.82,0.05 498.40,1.60 500.84,5.66 501.65,11.35"/>
    </edge>
    <edge id=":N_11_0" function="internal">
        <lane id=":N_11_0_0" index="0" speed="13.89" length="5.00" shape="491.75,511.35 491.56,509.99 490.98,509.02 490.01,508.44 488.65,508.25"/>
    </edge>
    <edge id=":N_11_1" function="internal">
        <lane id=":N_11_1_0" index="0" speed="13.89" length="22.70" shape="491.75,511.35 491.75,488.65"/>
        <lane id=":N_11_1_1" index="1" speed="13.89" length="22.70" shape="495.05,511.35 495.05,488.65"/>
    </edge>
    <edge id=":N_11_3" function="internal">
        <lane id=":N_11_3_0" index="0" speed="13.89" length="12.52" shape="498.35,511.35 499.16,505.66 501.60,501.60 503.35,500.55"/>
    </edge>
    <edge id=":N_11_16" function="internal">
        <lane id=":N_11_16_0" index="0" speed="13.89" length="8.44" shape="503.35,500.55 505.66,499.16 511.35,498.35"/>
    </edge>
    <edge id=":N_11_4" function="internal">
        <lane id=":N_11_4_0" index="0" speed="13.89" length="5.00" shape="511.35,508.25 509.99,508.44 509.02,509.02 508.44,509.99 508.25,511.35"/>
    </edge>
    <edge id=":N_11_5" function="internal">
        <lane id=":N_11_5_0" index="0" speed="13.89" length="22.70" shape="511.35,508.25 488.65,508.25"/>
        <lane id=":N_11_5_1" index="1" speed="13.89" length="22.70" shape="511.35,504.95 488.65,504.95"/>
    </edge>
    <edge id=":N_11_7" function="internal">
        <lane id=":N_11_7_0" index="0" speed="13.89" length="12.52" shape="511.35,501.65 505.66,500.84 501.60,498.40 500.55,496.65"/>
    </edge>
    <edge id=":N_11_17" function="internal">
        <lane id=":N_11_17_0" index="0" speed="13.89" length="8.44" shape="500.55,496.65 499.16,494.34 498.35,488.65"/>
    </edge>
    <edge id=":N_11_8" function="internal">
        <lane id=":N_11_8_0" index="0" speed="13.89" length="5.00" shape="508.25,488.65 508.44,490.01 509.02,490.98 509.99,491.56 511.35,491.75"/>
    </edge>
    <edge id=":N_11_9" function="internal">
        <lane id=":N_11_9_0" index="0" speed="13.89" length="22.70" shape="508.25,488.65 508.25,511.35"/>
        <lane id=":N_11_9_1" index="1" speed="13.89" length="22.70" shape="504.95,488.65 504.95,511.35"/>
    </edge>
    <edge id=":N_11_11" function="internal">
        <lane id=":N_11_11_0" index="0" speed="13.89" length="12.52" shape="501.65,488.65 500.84,494.34 498.40,498.40 496.65,499.45"/>
    </edge>
    <edge id=":N_11_18" function="internal">
        <lane id=":N_11_18_0" index="0" speed="13.89" length="8.44" shape="496.65,499.45 494.34,500.84 488.65,501.65"/>
    </edge>
    <edge id=":N_11_12" function="internal">
        <lane id=":N_11_12_0" index="0" speed="13.89" length="5.00" shape="488.65,491.75 490.01,491.56 490.98,490.98 491.56,490.01 491.75,488.65"/>
    </edge>
    <edge id=":N_11_13" function="internal">
        <lane id=":N_11_13_0" index="0" speed="13.89" length="22.70" shape="488.65,491.75 511.35,491.75"/>
        <lane id=":N_11_13_1" index="1" speed="13.89" length="22.70" shape="488.65,495.05 511.35,495.05"/>
    </edge>
    <edge id=":N_11_15" function="internal">
        <lane id=":N_11_15_0" index="0" speed="13.89" length="12.52" shape="488.65,498.35 494.34,499.16 498.40,501.60 499.45,503.35"/>
    </edge>
    <edge id=":N_11_19" function="internal">
        <lane id=":N_11_19_0" index="0" speed="13.89" length="8.44" shape="499.45,503.35 500.84,505.66 501.65,511.35"/>
    </edge>
    <edge id=":N_12_0" function="internal">
        <lane id=":N_12_0_0" index="0" speed="13.89" length="5.00" shape="491.75,1011.35 491.56,1009.99 490.98,1009.02 490.01,1008.44 488.65,1008.25"/>
    </edge>
    <edge id=":N_12_1" function="internal">
        <lane id=":N_12_1_0" index="0" speed="13.89" length="22.70" shape="491.75,1011.35 491.75,988.65"/>
        <lane id=":N_12_1_1" index="1" speed="13.89" length="22.70" shape="495.05,1011.35 495.05,988.65"/>
    </edge>
    <edge id=":N_12_3" function="internal">
        <lane id=":N_12_3_0" index="0" speed="13.89" length="12.52" shape="498.35,1011.35 499.16,1005.66 501.60,1001.60 503.35,1000.55"/>
    </edge>
    <edge id=":N_12_16" function="internal">
        <lane id=":N_12_16_0" index="0" speed="13.89" length="8.44" shape="503.35,1000.55 505.66,999.16 511.35,998.35"/>
    </edge>
    <edge id=":N_12_4" function="internal">
        <lane id=":N_12_4_0" index="0" speed="13.89" length="5.00" shape="511.35,1008.25 509.99,1008.44 509.02,1009.02 508.44,1009.99 508.25,1011.35"/>
    </edge>
    <edge id=":N_12_5" function="internal">
        <lane id=":N_12_5_0" index="0" speed="13.89" length="22.70" shape="511.35,1008.25 488.65,1008.25"/>
        <lane id=":N_12_5_1" index="1" speed="13.89" length="22.70" shape="511.35,1004.95 488.65,1004.95"/>
    </edge>
    <edge id=":N_12_7" function="internal">
        <lane id=":N_12_7_0" index="0" speed="13.89" length="12.52" shape="511.35,1001.65 505.66,1000.84 501.60,998.40 500.55,996.65"/>
    </edge>
    <edge id=":N_12_17" function="internal">
        <lane id=":N_12_17_0" index="0" speed="13.89" length="8.44" shape="500.55,996.65 499.16,994.34 498.35,988.65"/>
    </edge>
    <edge id=":N_12_8" function="internal">
        <lane id=":N_12_8_0" index="0" speed="13.89" length="5.00" shape="508.25,988.65 508.44,990.01 509.02,990.98 509.99,991.56 511.35,991.75"/>
    </edge>
    <edge id=":N_12_9" function="internal">
        <lane id=":N_12_9_0" index="0" speed="13.89" length="22.70" shape="508.25,988.65 508.25,1011.35"/>
        <lane id=":N_12_9_1" index="1" speed="13.89" length="22.70" shape="504.95,988.65 504.95,1011.35"/>
    </edge>
    <edge id=":N_12_11" function="internal">
        <lane id=":N_12_11_0" index="0" speed="13.89" length="12.52" shape="501.65,988.65 500.84,994.34 498.40,998.40 496.65,999.45"/>
    </edge>
    <edge id=":N_12_18" function="internal">
        <lane id=":N_12_18_0" index="0" speed="13.89" length="8.44" shape="496.65,999.45 494.34,1000.84 488.65,1001.65"/>
    </edge>
    <edge id=":N_12_12" function="internal">
        <lane id=":N_12_12_0" index="0" speed="13.89" length="5.00" shape="488.65,991.75 490.01,991.56 490.98,990.98 491.56,990.01 491.75,988.65"/>
    </edge>
    <edge id=":N_12_13" function="internal">
        <lane id=":N_12_13_0" index="0" speed="13.89" length="22.70" shape="488.65,991.75 511.35,991.75"/>
        <lane id=":N_12_13_1" index="1" speed="13.89" length="22.70" shape="488.65,995.05 511.35,995.05"/>
    </edge>
    <edge id=":N_12_15" function="internal">
        <lane id=":N_12_15_0" index="0" speed="13.89" length="12.52" shape="488.65,998.35 494.34,999.16 498.40,1001.60 499.45,1003.35"/>
    </edge>
    <edge id=":N_12_19" function="internal">
        <lane id=":N_12_19_0" index="0" speed="13.89" length="8.44" shape="499.45,1003.35 500.84,1005.66 501.65,1011.35"/>
    </edge>
    <edge id=":N_13_0" function="internal">
        <lane id=":N_13_0_0" index="0" speed="13.89" length="5.00" shape="491.75,1511.35 491.56,1509.99 490.98,1509.03 490.01,1508.44 488.65,1508.25"/>
    </edge>
    <edge id=":N_13_1" function="internal">
        <lane id=":N_13_1_0" index="0" speed="13.89" length="22.70" shape="491.75,1511.35 491.75,1488.65"/>
        <lane id=":N_13_1_1" index="1" speed="13.89" length="22.70" shape="495.05,1511.35 495.05,1488.65"/>
    </edge>
    <edge id=":N_13_3" function="internal">
        <lane id=":N_13_3_0" index="0" speed="13.89" length="12.52" shape="498.35,1511.35 499.16,1505.66 501.60,1501.60 503.35,1500.55"/>
    </edge>
    <edge id=":N_13_16" function="internal">
        <lane id=":N_13_16_0" index="0" speed="13.89" length="8.44" shape="503.35,1500.55 505.66,1499.16 511.35,1498.35"/>
    </edge>
    <edge id=":N_13_4" function="internal">
        <lane id=":N_13_4_0" index="0" speed="13.89" length="5.00" shape="511.35,1508.25 509.99,1508.44 509.02,1509.03 508.44,1509.99 508.25,1511.35"/>
    </edge>
    <edge id=":N_13_5" function="internal">
        <lane id=":N_13_5_0" index="0" speed="13.89" length="22.70" shape="511.35,1508.25 488.65,1508.25"/>
        <lane id=":N_13_5_1" index="1" speed="13.89" length="22.70" shape="511.35,1504.95 488.65,1504.95"/>
    </edge>
    <edge id=":N_13_7" function="internal">
        <lane id=":N_13_7_0" index="0" speed="13.89" length="12.52" shape="511.35,1501.65 505.66,1500.84 501.60,1498.40 500.55,1496.65"/>
    </edge>
    <edge id=":N_13_17" function="internal">
        <lane id=":N_13_17_0" index="0" speed="13.89" length="8.44" shape="500.55,1496.65 499.16,1494.34 498.35,1488.65"/>
    </edge>
    <edge id=":N_13_8" function="internal">
        <lane id=":N_13_8_0" index="0" speed="13.89" length="5.00" shape="508.25,1488.65 508.44,1490.01 509.02,1490.97 509.99,1491.56 511.35,1491.75"/>
    </edge>
    <edge id=":N_13_9" function="internal">
        <lane id=":N_13_9_0" index="0" speed="13.89" length="22.70" shape="508.25,1488.65 508.25,1511.35"/>
        <lane id=":N_13_9_1" index="1" speed="13.89" length="22.70" shape="504.95,1488.65 504.95,1511.35"/>
    </edge>
    <edge id=":N_13_11" function="internal">
        <lane id=":N_13_11_0" index="0" speed="13.89" length="12.52" shape="501.65,1488.65 500.84,1494.34 498.40,1498.40 496.65,1499.45"/>
    </edge>
    <edge id=":N_13_18" function="internal">
        <lane id=":N_13_18_0" index="0" speed="13.89" length="8.44" shape="496.65,1499.45 494.34,1500.84 488.65,1501.65"/>
    </edge>
    <edge id=":N_13_12" function="internal">
        <lane id=":N_13_12_0" index="0" speed="13.89" length="5.00" shape="488.65,1491.75 490.01,1491.56 490.98,1490.97 491.56,1490.01 491.75,1488.65"/>
    </edge>
    <edge id=":N_13_13" function="internal">
        <lane id=":N_13_13_0" index="0" speed="13.89" length="22.70" shape="488.65,1491.75 511.35,1491.75"/>
        <lane id=":N_13_13_1" index="1" speed="13.89" length="22.70" shape="488.65,1495.05 511.35,1495.05"/>
    </edge>
    <edge id=":N_13_15" function="internal">
        <lane id=":N_13_15_0" index="0" speed="13.89" length="12.52" shape="488.65,1498.35 494.34,1499.16 498.40,1501.60 499.45,1503.35"/>
    </edge>
    <edge id=":N_13_19" function="internal">
        <lane id=":N_13_19_0" index="0" speed="13.89" length="8.44" shape="499.45,1503.35 500.84,1505.66 501.65,1511.35"/>
    </edge>
    <edge id=":N_14_0" function="internal">
        <lane id=":N_14_0_0" index="0" speed="13.89" length="5.00" shape="491.75,2011.35 491.56,2009.99 490.98,2009.03 490.01,2008.44 488.65,2008.25"/>
    </edge>
    <edge id=":N_14_1" function="internal">
        <lane id=":N_14_1_0" index="0" speed="13.89" length="22.70" shape="491.75,2011.35 491.75,1988.65"/>
        <lane id=":N_14_1_1" index="1" speed="13.89" length="22.70" shape="495.05,2011.35 495.05,1988.65"/>
    </edge>
    <edge id=":N_14_3" function="internal">
        <lane id=":N_14_3_0" index="0" speed="13.89" length="12.52" shape="498.35,2011.35 499.16,2005.66 501.60,2001.60 503.35,2000.55"/>
    </edge>
    <edge id=":N_14_16" function="internal">
        <lane id=":N_14_16_0" index="0" speed="13.89" length="8.44" shape="503.35,2000.55 505.66,1999.16 511.35,1998.35"/>
    </edge>
    <edge id=":N_14_4" function="internal">
        <lane id=":N_14_4_0" index="0" speed="13.89" length="5.00" shape="511.35,2008.25 509.99,2008.44 509.02,2009.03 508.44,2009.99 508.25,2011.35"/>
    </edge>
    <edge id=":N_14_5" function="internal">
        <lane id=":N_14_5_0" index="0" speed="13.89" length="22.70" shape="511.35,2008.25 488.65,2008.25"/>
        <lane id=":N_14_5_1" index="1" speed="13.89" length="22.70" shape="511.35,2004.95 488.65,2004.95"/>
    </edge>
    <edge id=":N_14_7" function="internal">
        <lane id=":N_14_7_0" index="0" speed="13.89" length="12.52" shape="511.35,2001.65 505.66,2000.84 501.60,1998.40 500.55,1996.65"/>
    </edge>
    <edge id=":N_14_17" function="internal">
        <lane id=":N_14_17_0" index="0" speed="13.89" length="8.44" shape="500.55,1996.65 499.16,1994.34 498.35,1988.65"/>
    </edge>
    <edge id=":N_14_8" function="internal">
        <lane id=":N_14_8_0" index="0" speed="13.89" length="5.00" shape="508.25,1988.65 508.44,1990.01 509.02,1990.97 509.99,1991.56 511.35,1991.75"/>
    </edge>