<?xml version="1.0" encoding="UTF-8"?>
<routes>
    <vType id="typeA" accel="0.8" decel="4.5" sigma="0.5" length="5" minGap="2.5" maxSpeed="16.67" guiShape="passenger"/>
    <vType id="typeB" accel="0.8" decel="4.5" sigma="0.5" length="7" minGap="3" maxSpeed="25" guiShape="bus"/>
    <route id="route0" edges="04_14"/>
    <route id="route1" edges="73_63"/>
    <route id="route2" edges="40_41"/>
    <route id="route3" edges="37_36"/>
    <route id="route4" edges="47_46"/>
    <route id="route5" edges="74_64"/>
    <route id="route6" edges="03_13"/>
    <route id="route7" edges="73_63"/>
    <route id="route8" edges="30_31"/>
    <route id="route9" edges="73_63"/>
    <route id="route10" edges="04_14"/>
    <route id="route11" edges="47_46"/>
    <route id="route12" edges="47_46"/>
    <route id="route13" edges="74_64"/>
    <route id="route14" edges="03_13"/>
    <route id="route15" edges="40_41"/>
    <route id="route16" edges="04_14"/>
    <route id="route17" edges="04_14"/>
    <route id="route18" edges="74_64"/>
    <route id="route19" edges="37_36"/>
    <route id="route20" edges="37_36"/>
    <route id="route21" edges="74_64"/>
    <route id="route22" edges="30_31"/>
    <route id="route23" edges="30_31"/>
    <route id="route24" edges="74_64"/>
    <route id="route25" edges="47_46"/>
    <route id="route26" edges="03_13"/>
    <route id="route27" edges="74_64"/>
    <route id="route28" edges="30_31"/>
    <route id="route29" edges="03_13"/>
    <route id="route30" edges="73_63"/>
    <route id="route31" edges="30_31"/>
    <route id="route32" edges="03_13"/>
    <route id="route33" edges="73_63"/>
    <route id="route34" edges="03_13"/>
    <route id="route35" edges="73_63"/>
    <route id="route36" edges="47_46"/>
    <route id="route37" edges="37_36"/>
    <route id="route38" edges="04_14"/>
    <route id="route39" edges="74_64"/>
    <route id="route40" edges="37_36"/>
    <route id="route41" edges="04_14"/>
    <route id="route42" edges="74_64"/>
    <route id="route43" edges="37_36"/>
    <route id="route44" edges="40_41"/>
    <route id="route45" edges="37_36"/>
    <route id="route46" edges="40_41"/>
    <route id="route47" edges="73_63"/>
    <route id="route48" edges="47_46"/>
    <route id="route49" edges="30_31"/>
    <route id="route50" edges="74_64"/>
    <route id="route51" edges="47_46"/>
    <route id="route52" edges="40_41"/>
    <route id="route53" edges="40_41"/>
    <route id="route54" edges="74_64"/>
    <route id="route55" edges="03_13"/>
    <route id="route56" edges="74_64"/>
    <route id="route57" edges="47_46"/>
    <route id="route58" edges="40_41"/>
    <route id="route59" edges="37_36"/>
    <route id="route60" edges="47_46"/>
    <route id="route61" edges="30_31"/>
    <route id="route62" edges="47_46"/>
    <route id="route63" edges="37_36"/>
    <route id="route64" edges="40_41"/>
    <route id="route65" edges="04_14"/>
    <route id="route66" edges="37_36"/>
    <route id="route67" edges="30_31"/>
    <route id="route68" edges="74_64"/>
    <route id="route69" edges="03_13"/>
    <route id="route70" edges="73_63"/>
    <route id="route71" edges="30_31"/>
    <route id="route72" edges="37_36"/>
    <route id="route73" edges="03_13"/>
    <route id="route74" edges="40_41"/>
    <route id="route75" edges="04_14"/>
    <route id="route76" edges="74_64"/>
    <route id="route77" edges="37_36"/>
    <route id="route78" edges="30_31"/>
    <route id="route79" edges="04_14"/>
    <route id="route80" edges="73_63"/>
    <route id="route81" edges="03_13"/>
    <route id="route82" edges="73_63"/>
    <route id="route83" edges="47_46"/>
    <route id="route84" edges="04_14"/>
    <route id="route85" edges="37_36"/>
    <route id="route86" edges="74_64"/>
    <route id="route87" edges="03_13"/>
    <route id="route88" edges="74_64"/>
    <route id="route89" edges="37_36"/>
    <route id="route90" edges="03_13"/>
    <route id="route91" edges="73_63"/>
    <route id="route92" edges="03_13"/>
    <route id="route93" edges="47_46"/>
    <route id="route94" edges="73_63"/>
    <route id="route95" edges="47_46"/>
    <route id="route96" edges="30_31"/>
    <route id="route97" edges="03_13"/>
    <route id="route98" edges="74_64"/>
    <route id="route99" edges="74_64"/>
    <route id="route100" edges="37_36"/>
    <route id="route101" edges="03_13"/>
    <route id="route102" edges="37_36"/>
    <route id="route103" edges="40_41"/>
    <route id="route104" edges="04_14"/>
    <route id="route105" edges="37_36"/>
    <route id="route106" edges="30_31"/>
    <route id="route107" edges="74_64"/>
    <route id="route108" edges="47_46"/>
    <route id="route109" edges="03_13"/>
    <route id="route110" edges="47_46"/>
    <route id="route111" edges="03_13"/>
    <route id="route112" edges="04_14"/>
    <route id="route113" edges="47_46"/>
    <route id="route114" edges="03_13"/>
    <route id="route115" edges="73_63"/>
    <route id="route116" edges="47_46"/>
    <route id="route117" edges="37_36"/>
    <route id="route118" edges="73_63"/>
    <route id="route119" edges="47_46"/>
    <route id="route120" edges="37_36"/>
    <route id="route121" edges="37_36"/>
    <route id="route122" edges="03_13"/>
    <route id="route123" edges="74_64"/>
    <route id="route124" edges="74_64"/>
    <route id="route125" edges="30_31"/>
    <route id="route126" edges="37_36"/>
    <route id="route127" edges="47_46"/>
    <route id="route128" edges="37_36"/>
    <route id="route129" edges="40_41"/>
    <route id="route130" edges="73_63"/>
    <route id="route131" edges="47_46"/>
    <route id="route132" edges="40_41"/>
    <route id="route133" edges="40_41"/>
    <route id="route134" edges="47_46"/>
    <route id="route135" edges="40_41"/>
    <route id="route136" edges="03_13"/>
    <route id="route137" edges="30_31"/>
    <route id="route138" edges="30_31"/>
    <route id="route139" edges="37_36"/>
    <route id="route140" edges="03_13"/>
    <route id="route141" edges="73_63"/>
    <route id="route142" edges="74_64"/>
    <route id="route143" edges="47_46"/>
    <route id="route144" edges="30_31"/>
    <route id="route145" edges="73_63"/>
    <route id="route146" edges="37_36"/>
    <route id="route147" edges="73_63"/>
    <route id="route148" edges="30_31"/>
    <route id="route149" edges="04_14"/>
    <route id="route150" edges="74_64"/>
    <route id="route151" edges="47_46"/>
    <route id="route152" edges="04_14"/>
    <route id="route153" edges="37_36"/>
    <route id="route154" edges="40_41"/>
    <route id="route155" edges="37_36"/>
    <route id="route156" edges="04_14"/>
    <route id="route157" edges="47_46"/>
    <route id="route158" edges="37_36"/>
    <route id="route159" edges="40_41"/>
    <route id="route160" edges="03_13"/>
    <route id="route161" edges="47_46"/>
    <route id="route162" edges="03_13"/>
    <route id="route163" edges="37_36"/>
    <route id="route164" edges="74_64"/>
    <route id="route165" edges="47_46"/>
    <route id="route166" edges="04_14"/>
    <route id="route167" edges="40_41"/>
    <route id="route168" edges="03_13"/>
    <route id="route169" edges="04_14"/>
    <route id="route170" edges="73_63"/>
    <route id="route171" edges="47_46"/>
    <route id="route172" edges="40_41"/>
    <route id="route173" edges="03_13"/>
    <route id="route174" edges="74_64"/>
    <route id="route175" edges="04_14"/>
    <route id="route176" edges="47_46"/>
    <route id="route177" edges="47_46"/>
    <route id="route178" edges="30_31"/>
    <route id="route179" edges="03_13"/>
    <route id="route180" edges="37_36"/>
    <route id="route181" edges="04_14"/>
    <route id="route182" edges="40_41"/>
    <route id="route183" edges="04_14"/>
    <route id="route184" edges="37_36"/>
    <route id="route185" edges="30_31"/>
    <route id="route186" edges="47_46"/>
    <route id="route187" edges="74_64"/>
    <route id="route188" edges="37_36"/>
    <route id="route189" edges="40_41"/>
    <route id="route190" edges="03_13"/>
    <route id="route191" edges="30_31"/>
    <route id="route192" edges="03_13"/>
    <route id="route193" edges="74_64"/>
    <route id="route194" edges="74_64"/>
    <route id="route195" edges="37_36"/>
    <route id="route196" edges="04_14"/>
    <route id="route197" edges="73_63"/>
    <route id="route198" edges="47_46"/>
    <route id="route199" edges="30_31"/>
    <route id="route200" edges="37_36"/>
    <route id="route201" edges="30_31"/>
    <route id="route202" edges="37_36"/>
    <route id="route203" edges="03_13"/>
    <route id="route204" edges="40_41"/>
    <route id="route205" edges="40_41"/>
    <route id="route206" edges="30_31"/>
    <route id="route207" edges="03_13"/>
    <route id="route208" edges="40_41"/>
    <route id="route209" edges="40_41"/>
    <route id="route210" edges="74_64"/>
    <route id="route211" edges="73_63"/>
    <route id="route212" edges="30_31"/>
    <route id="route213" edges="40_41"/>
    <route id="route214" edges="40_41"/>
    <route id="route215" edges="03_13"/>
    <route id="route216" edges="74_64"/>
    <route id="route217" edges="74_64"/>
    <route id="route218" edges="37_36"/>
    <route id="route219" edges="03_13"/>
    <route id="route220" edges="47_46"/>
    <route id="route221" edges="47_46"/>
    <route id="route222" edges="73_63"/>
    <route id="route223" edges="40_41"/>
    <route id="route224" edges="03_13"/>
    <route id="route225" edges="47_46"/>
    <route id="route226" edges="40_41"/>
    <route id="route227" edges="47_46"/>
    <route id="route228" edges="73_63"/>
    <route id="route229" edges="40_41"/>
    <route id="route230" edges="47_46"/>
    <route id="route231" edges="74_64"/>
    <route id="route232" edges="37_36"/>
    <route id="route233" edges="74_64"/>
    <route id="route234" edges="30_31"/>
    <route id="route235" edges="73_63"/>
    <route id="route236" edges="03_13"/>
    <route id="route237" edges="30_31"/>
    <route id="route238" edges="37_36"/>
    <route id="route239" edges="47_46"/>
    <route id="route240" edges="03_13"/>
    <route id="route241" edges="73_63"/>
    <route id="route242" edges="37_36"/>
    <route id="route243" edges="30_31"/>
    <route id="route244" edges="74_64"/>
    <route id="route245" edges="04_14"/>
    <route id="route246" edges="40_41"/>
    <route id="route247" edges="37_36"/>
    <route id="route248" edges="40_41"/>
    <route id="route249" edges="03_13"/>
    <route id="route250" edges="73_63"/>
    <route id="route251" edges="04_14"/>
    <route id="route252" edges="74_64"/>
    <route id="route253" edges="47_46"/>
    <route id="route254" edges="40_41"/>
    <route id="route255" edges="04_14"/>
    <route id="route256" edges="74_64"/>
    <route id="route257" edges="73_63"/>
    <route id="route258" edges="37_36"/>
    <route id="route259" edges="04_14"/>
    <route id="route260" edges="73_63"/>
    <route id="route261" edges="30_31"/>
    <route id="route262" edges="73_63"/>
    <route id="route263" edges="30_31"/>
    <route id="route264" edges="37_36"/>
    <route id="route265" edges="04_14"/>
    <route id="route266" edges="74_64"/>
    <route id="route267" edges="03_13"/>
    <route id="route268" edges="47_46"/>
    <route id="route269" edges="74_64"/>
    <route id="route270" edges="73_63"/>
    <route id="route271" edges="30_31"/>
    <route id="route272" edges="47_46"/>
    <route id="route273" edges="47_46"/>
    <route id="route274" edges="40_41"/>
    <route id="route275" edges="04_14"/>
    <route id="route276" edges="37_36"/>
    <route id="route277" edges="40_41"/>
    <route id="route278" edges="04_14"/>
    <route id="route279" edges="40_41"/>
    <route id="route280" edges="74_64"/>
    <route id="route281" edges="47_46"/>
    <route id="route282" edges="37_36"/>
    <route id="route283" edges="03_13"/>
    <route id="route284" edges="40_41"/>
    <route id="route285" edges="73_63"/>
    <route id="route286" edges="40_41"/>
    <route id="route287" edges="04_14"/>
    <route id="route288" edges="73_63"/>
    <route id="route289" edges="37_36"/>
    <route id="route290" edges="04_14"/>
    <route id="route291" edges="73_63"/>
    <route id="route292" edges="47_46"/>
    <route id="route293" edges="03_13"/>
    <route id="route294" edges="74_64"/>
    <route id="route295" edges="37_36"/>
    <route id="route296" edges="73_63"/>
    <route id="route297" edges="03_13"/>
    <route id="route298" edges="47_46"/>
    <route id="route299" edges="40_41"/>
    <route id="route300" edges="03_13"/>
    <route id="route301" edges="03_13"/>
    <route id="route302" edges="04_14"/>
    <route id="route303" edges="40_41"/>
    <route id="route304" edges="40_41"/>
    <route id="route305" edges="40_41"/>
    <route id="route306" edges="04_14"/>
    <route id="route307" edges="04_14"/>
    <route id="route308" edges="74_64"/>
    <route id="route309" edges="30_31"/>
    <route id="route310" edges="04_14"/>
    <route id="route311" edges="73_63"/>
    <route id="route312" edges="37_36"/>
    <route id="route313" edges="40_41"/>
    <route id="route314" edges="03_13"/>
    <route id="route315" edges="03_13"/>
    <route id="route316" edges="73_63"/>
    <route id="route317" edges="30_31"/>
    <route id="route318" edges="73_63"/>
    <route id="route319" edges="47_46"/>
    <route id="route320" edges="04_14"/>
    <route id="route321" edges="37_36"/>
    <route id="route322" edges="30_31"/>
    <route id="route323" edges="04_14"/>
    <route id="route324" edges="73_63"/>
    <route id="route325" edges="40_41"/>
    <route id="route326" edges="73_63"/>
    <route id="route327" edges="37_36"/>
    <route id="route328" edges="03_13"/>
    <route id="route329" edges="73_63"/>
    <route id="route330" edges="47_46"/>
    <route id="route331" edges="73_63"/>
    <route id="route332" edges="73_63"/>
    <route id="route333" edges="30_31"/>
    <route id="route334" edges="04_14"/>
    <route id="route335" edges="73_63"/>
    <route id="route336" edges="73_63"/>
    <route id="route337" edges="47_46"/>
    <route id="route338" edges="73_63"/>
    <route id="route339" edges="03_13"/>
    <route id="route340" edges="74_64"/>
    <route id="route341" edges="37_36"/>
    <route id="route342" edges="03_13"/>
    <route id="route343" edges="73_63"/>
    <route id="route344" edges="47_46"/>
    <route id="route345" edges="03_13"/>
    <route id="route346" edges="47_46"/>
    <route id="route347" edges="03_13"/>
    <route id="route348" edges="74_64"/>
    <route id="route349" edges="37_36"/>
    <route id="route350" edges="04_14"/>
    <route id="route351" edges="30_31"/>
    <route id="route352" edges="73_63"/>
    <route id="route353" edges="30_31"/>
    <route id="route354" edges="47_46"/>
    <route id="route355" edges="30_31"/>
    <route id="route356" edges="03_13"/>
    <route id="route357" edges="03_13"/>
    <route id="route358" edges="03_13"/>
    <route id="route359" edges="73_63"/>
    <route id="route360" edges="04_14"/>
    <route id="route361" edges="73_63"/>
    <route id="route362" edges="47_46"/>
    <route id="route363" edges="03_13"/>
    <route id="route364" edges="37_36"/>
    <route id="route365" edges="40_41"/>
    <route id="route366" edges="30_31"/>
    <route id="route367" edges="03_13"/>
    <route id="route368" edges="37_36"/>
    <route id="route369" edges="30_31"/>
    <route id="route370" edges="03_13"/>
    <route id="route371" edges="47_46"/>
    <route id="route372" edges="40_41"/>
    <route id="route373" edges="30_31"/>
    <route id="route374" edges="40_41"/>
    <route id="route375" edges="03_13"/>
    <route id="route376" edges="37_36"/>
    <route id="route377" edges="04_14"/>
    <route id="route378" edges="47_46"/>
    <route id="route379" edges="04_14"/>
    <route id="route380" edges="73_63"/>
    <route id="route381" edges="37_36"/>
    <route id="route382" edges="30_31"/>
    <route id="route383" edges="47_46"/>
    <route id="route384" edges="37_36"/>
    <route id="route385" edges="03_13"/>
    <route id="route386" edges="40_41"/>
    <route id="route387" edges="04_14"/>
    <route id="route388" edges="40_41"/>
    <route id="route389" edges="04_14"/>
    <route id="route390" edges="03_13"/>
    <route id="route391" edges="73_63"/>
    <route id="route392" edges="30_31"/>
    <route id="route393" edges="73_63"/>
    <route id="route394" edges="37_36"/>
    <route id="route395" edges="04_14"/>
    <route id="route396" edges="30_31"/>
    <route id="route397" edges="74_64"/>
    <route id="route398" edges="03_13"/>
    <route id="route399" edges="47_46"/>
    <route id="route400" edges="03_13"/>
    <route id="route401" edges="37_36"/>
    <route id="route402" edges="04_14"/>
    <route id="route403" edges="74_64"/>
    <route id="route404" edges="74_64"/>
    <route id="route405" edges="03_13"/>
    <route id="route406" edges="47_46"/>
    <route id="route407" edges="30_31"/>
    <route id="route408" edges="03_13"/>
    <route id="route409" edges="74_64"/>
    <route id="route410" edges="37_36"/>
    <route id="route411" edges="30_31"/>
    <route id="route412" edges="37_36"/>
    <route id="route413" edges="73_63"/>
    <route id="route414" edges="47_46"/>
    <route id="route415" edges="74_64"/>
    <route id="route416" edges="30_31"/>
    <route id="route417" edges="03_13"/>
    <route id="route418" edges="40_41"/>
    <route id="route419" edges="03_13"/>
    <route id="route420" edges="73_63"/>
    <route id="route421" edges="04_14"/>
    <route id="route422" edges="74_64"/>
    <route id="route423" edges="03_13"/>
    <route id="route424" edges="74_64"/>
    <route id="route425" edges="37_36"/>
    <route id="route426" edges="30_31"/>
    <route id="route427" edges="37_36"/>
    <route id="route428" edges="03_13"/>
    <route id="route429" edges="74_64"/>
    <route id="route430" edges="03_13"/>
    <route id="route431" edges="73_63"/>
    <route id="route432" edges="47_46"/>
    <route id="route433" edges="40_41"/>
    <route id="route434" edges="04_14"/>
    <route id="route435" edges="04_14"/>
    <route id="route436" edges="47_46"/>
    <route id="route437" edges="30_31"/>
    <route id="route438" edges="73_63"/>
    <route id="route439" edges="47_46"/>
    <route id="route440" edges="03_13"/>
    <route id="route441" edges="74_64"/>
    <route id="route442" edges="30_31"/>
    <route id="route443" edges="73_63"/>
    <route id="route444" edges="74_64"/>
    <route id="route445" edges="37_36"/>
    <route id="route446" edges="74_64"/>
    <route id="route447" edges="47_46"/>
    <route id="route448" edges="40_41"/>
    <route id="route449" edges="03_13"/>
    <route id="route450" edges="40_41"/>
    <route id="route451" edges="73_63"/>
    <route id="route452" edges="04_14"/>
    <route id="route453" edges="30_31"/>
    <route id="route454" edges="47_46"/>
    <route id="route455" edges="30_31"/>
    <route id="route456" edges="30_31"/>
    <route id="route457" edges="73_63"/>
    <route id="route458" edges="03_13"/>
    <route id="route459" edges="37_36"/>
    <route id="route460" edges="40_41"/>
    <route id="route461" edges="04_14"/>
    <route id="route462" edges="47_46"/>
    <route id="route463" edges="04_14"/>
    <route id="route464" edges="74_64"/>
    <route id="route465" edges="37_36"/>
    <route id="route466" edges="03_13"/>
    <route id="route467" edges="74_64"/>
    <route id="route468" edges="04_14"/>
    <route id="route469" edges="03_13"/>
    <route id="route470" edges="03_13"/>
    <route id="route471" edges="04_14"/>
    <route id="route472" edges="73_63"/>
    <route id="route473" edges="30_31"/>
    <route id="route474" edges="03_13"/>
    <route id="route475" edges="04_14"/>
    <route id="route476" edges="04_14"/>
    <route id="route477" edges="47_46"/>
    <route id="route478" edges="30_31"/>
    <route id="route479" edges="03_13"/>
    <route id="route480" edges="73_63"/>
    <route id="route481" edges="30_31"/>
    <route id="route482" edges="37_36"/>
    <route id="route483" edges="40_41"/>
    <route id="route484" edges="04_14"/>
    <route id="route485" edges="74_64"/>
    <route id="route486" edges="74_64"/>
    <route id="route487" edges="74_64"/>
    <route id="route488" edges="47_46"/>
    <route id="route489" edges="30_31"/>
    <route id="route490" edges="73_63"/>
    <route id="route491" edges="04_14"/>
    <route id="route492" edges="74_64"/>
    <route id="route493" edges="47_46"/>
    <route id="route494" edges="03_13"/>
    <route id="route495" edges="37_36"/>
    <route id="route496" edges="73_63"/>
    <route id="route497" edges="40_41"/>
    <route id="route498" edges="03_13"/>
    <route id="route499" edges="30_31"/>
    <route id="route500" edges="73_63"/>
    <route id="route501" edges="73_63"/>
    <route id="route502" edges="37_36"/>
    <route id="route503" edges="03_13"/>
    <route id="route504" edges="73_63"/>
    <route id="route505" edges="47_46"/>
    <route id="route506" edges="40_41"/>
    <route id="route507" edges="73_63"/>
    <route id="route508" edges="47_46"/>
    <route id="route509" edges="40_41"/>
    <route id="route510" edges="40_41"/>
    <route id="route511" edges="73_63"/>
    <route id="route512" edges="03_13"/>
    <route id="route513" edges="37_36"/>
    <route id="route514" edges="40_41"/>
    <route id="route515" edges="74_64"/>
    <route id="route516" edges="40_41"/>
    <route id="route517" edges="74_64"/>
    <route id="route518" edges="37_36"/>
    <route id="route519" edges="04_14"/>
    <route id="route520" edges="73_63"/>
    <route id="route521" edges="30_31"/>
    <route id="route522" edges="74_64"/>
    <route id="route523" edges="30_31"/>
    <route id="route524" edges="40_41"/>
    <route id="route525" edges="04_14"/>
    <route id="route526" edges="30_31"/>
    <route id="route527" edges="04_14"/>
    <route id="route528" edges="37_36"/>
    <route id="route529" edges="40_41"/>
    <route id="route530" edges="47_46"/>
    <route id="route531" edges="40_41"/>
    <route id="route532" edges="03_13"/>
    <route id="route533" edges="73_63"/>
    <route id="route534" edges="30_31"/>
    <route id="route535" edges="04_14"/>
    <route id="route536" edges="74_64"/>
    <route id="route537" edges="37_36"/>
    <route id="route538" edges="40_41"/>
    <route id="route539" edges="03_13"/>
    <route id="route540" edges="04_14"/>
    <route id="route541" edges="74_64"/>
    <route id="route542" edges="37_36"/>
    <route id="route543" edges="40_41"/>
    <route id="route544" edges="04_14"/>
    <route id="route545" edges="03_13"/>
    <route id="route546" edges="03_13"/>
    <route id="route547" edges="74_64"/>
    <route id="route548" edges="47_46"/>
    <route id="route549" edges="03_13"/>
    <route id="route550" edges="73_63"/>
    <route id="route551" edges="37_36"/>
    <route id="route552" edges="40_41"/>
    <route id="route553" edges="03_13"/>
    <route id="route554" edges="74_64"/>
    <route id="route555" edges="30_31"/>
    <route id="route556" edges="74_64"/>
    <route id="route557" edges="40_41"/>
    <route id="route558" edges="74_64"/>
    <route id="route559" edges="40_41"/>
    <route id="route560" edges="30_31"/>
    <route id="route561" edges="74_64"/>
    <route id="route562" edges="37_36"/>
    <route id="route563" edges="40_41"/>
    <route id="route564" edges="03_13"/>
    <route id="route565" edges="73_63"/>
    <route id="route566" edges="40_41"/>
    <route id="route567" edges="04_14"/>
    <route id="route568" edges="73_63"/>
    <route id="route569" edges="03_13"/>
    <route id="route570" edges="40_41"/>
    <route id="route571" edges="40_41"/>
    <route id="route572" edges="03_13"/>
    <route id="route573" edges="73_63"/>
    <route id="route574" edges="47_46"/>
    <route id="route575" edges="30_31"/>
    <route id="route576" edges="74_64"/>
    <route id="route577" edges="74_64"/>
    <route id="route578" edges="37_36"/>
    <route id="route579" edges="40_41"/>
    <route id="route580" edges="47_46"/>
    <route id="route581" edges="47_46"/>
    <route id="route582" edges="40_41"/>
    <route id="route583" edges="03_13"/>
    <route id="route584" edges="37_36"/>
    <route id="route585" edges="03_13"/>
    <route id="route586" edges="30_31"/>
    <route id="route587" edges="04_14"/>
    <route id="route588" edges="74_64"/>
    <route id="route589" edges="47_46"/>
    <route id="route590" edges="04_14"/>
    <route id="route591" edges="04_14"/>
    <route id="route592" edges="03_13"/>
    <route id="route593" edges="74_64"/>
    <route id="route594" edges="47_46"/>
    <route id="route595" edges="04_14"/>
    <route id="route596" edges="47_46"/>
    <route id="route597" edges="37_36"/>
    <route id="route598" edges="30_31"/>
    <route id="route599" edges="47_46"/>
    <route id="route600" edges="04_14"/>
    <route id="route601" edges="30_31"/>
    <route id="route602" edges="04_14"/>
    <route id="route603" edges="40_41"/>
    <route id="route604" edges="74_64"/>
    <route id="route605" edges="47_46"/>
    <route id="route606" edges="40_41"/>
    <route id="route607" edges="74_64"/>
    <route id="route608" edges="40_41"/>
    <route id="route609" edges="04_14"/>
    <route id="route610" edges="73_63"/>
    <route id="route611" edges="04_14"/>
    <route id="route612" edges="37_36"/>
    <route id="route613" edges="74_64"/>
    <route id="route614" edges="40_41"/>
    <route id="route615" edges="37_36"/>
    <route id="route616" edges="47_46"/>
    <route id="route617" edges="47_46"/>
    <route id="route618" edges="40_41"/>
    <route id="route619" edges="37_36"/>
    <route id="route620" edges="03_13"/>
    <route id="route621" edges="74_64"/>
    <route id="route622" edges="03_13"/>
    <route id="route623" edges="30_31"/>
    <route id="route624" edges="37_36"/>
    <route id="route625" edges="30_31"/>
    <route id="route626" edges="74_64"/>
    <route id="route627" edges="37_36"/>
    <route id="route628" edges="37_36"/>
    <route id="route629" edges="04_14"/>
    <route id="route630" edges="73_63"/>
    <route id="route631" edges="37_36"/>
    <route id="route632" edges="04_14"/>
    <route id="route633" edges="37_36"/>
    <route id="route634" edges="73_63"/>
    <route id="route635" edges="40_41"/>
    <route id="route636" edges="73_63"/>
    <route id="route637" edges="30_31"/>
    <route id="route638" edges="03_13"/>
    <route id="route639" edges="04_14"/>
    <route id="route640" edges="47_46"/>
    <route id="route641" edges="04_14"/>
    <route id="route642" edges="04_14"/>
    <route id="route643" edges="47_46"/>
    <route id="route644" edges="03_13"/>
    <route id="route645" edges="04_14"/>
    <route id="route646" edges="73_63"/>
    <route id="route647" edges="30_31"/>
    <route id="route648" edges="74_64"/>
    <route id="route649" edges="73_63"/>
    <route id="route650" edges="73_63"/>
    <route id="route651" edges="37_36"/>
    <route id="route652" edges="40_41"/>
    <route id="route653" edges="73_63"/>
    <route id="route654" edges="37_36"/>
    <route id="route655" edges="47_46"/>
    <route id="route656" edges="30_31"/>
    <route id="route657" edges="30_31"/>
    <route id="route658" edges="47_46"/>
    <route id="route659" edges="30_31"/>
    <route id="route660" edges="04_14"/>
    <route id="route661" edges="40_41"/>
    <route id="route662" edges="37_36"/>
    <route id="route663" edges="40_41"/>
    <route id="route664" edges="47_46"/>
    <route id="route665" edges="30_31"/>
    <route id="route666" edges="74_64"/>
    <route id="route667" edges="73_63"/>
    <route id="route668" edges="40_41"/>
    <route id="route669" edges="03_13"/>
    <route id="route670" edges="74_64"/>
    <route id="route671" edges="73_63"/>
    <route id="route672" edges="30_31"/>
    <route id="route673" edges="40_41"/>
    <route id="route674" edges="37_36"/>
    <route id="route675" edges="74_64"/>
    <route id="route676" edges="47_46"/>
    <route id="route677" edges="03_13"/>
    <route id="route678" edges="40_41"/>
    <route id="route679" edges="03_13"/>
    <route id="route680" edges="30_31"/>
    <route id="route681" edges="03_13"/>
    <route id="route682" edges="73_63"/>
    <route id="route683" edges="37_36"/>
    <route id="route684" edges="40_41"/>
    <route id="route685" edges="03_13"/>
    <route id="route686" edges="74_64"/>
    <route id="route687" edges="47_46"/>
    <route id="route688" edges="03_13"/>
    <route id="route689" edges="47_46"/>
    <route id="route690" edges="40_41"/>
    <route id="route691" edges="73_63"/>
    <route id="route692" edges="37_36"/>
    <route id="route693" edges="30_31"/>
    <route id="route694" edges="04_14"/>
    <route id="route695" edges="73_63"/>
    <route id="route696" edges="74_64"/>
    <route id="route697" edges="30_31"/>
    <route id="route698" edges="03_13"/>
    <route id="route699" edges="74_64"/>
    <route id="route700" edges="40_41"/>
    <route id="route701" edges="30_31"/>
    <route id="route702" edges="03_13"/>
    <route id="route703" edges="03_13"/>
    <route id="route704" edges="47_46"/>
    <route id="route705" edges="30_31"/>
    <route id="route706" edges="47_46"/>
    <route id="route707" edges="30_31"/>
    <route id="route708" edges="03_13"/>
    <route id="route709" edges="40_41"/>
    <route id="route710" edges="73_63"/>
    <route id="route711" edges="40_41"/>
    <route id="route712" edges="37_36"/>
    <route id="route713" edges="40_41"/>
    <route id="route714" edges="40_41"/>
    <route id="route715" edges="74_64"/>
    <route id="route716" edges="30_31"/>
    <route id="route717" edges="04_14"/>
    <route id="route718" edges="04_14"/>
    <route id="route719" edges="73_63"/>
    <route id="route720" edges="03_13"/>
    <route id="route721" edges="40_41"/>
    <route id="route722" edges="47_46"/>
    <route id="route723" edges="47_46"/>
    <route id="route724" edges="03_13"/>
    <route id="route725" edges="37_36"/>
    <route id="route726" edges="03_13"/>